# created with PyMOL 3.0.3
@<TRIPOS>MOLECULE
second
43 44 1                 
SMALL
USER_CHARGES
@<TRIPOS>ATOM
1	  C1	8.816	4.474	12.348	C.3	1	LIG1	0.000	
2	  N1	6.132	3.337	12.702	N.3	1	LIG1	0.000	
3	  O1	6.535	1.861	10.345	O.co2	1	LIG1	0.000	
4	  C2	8.559	3.181	13.093	C.3	1	LIG1	0.000	
5	  N2	7.457	-1.668	6.455	N.2	1	LIG1	0.000	
6	  O2	8.680	1.378	10.935	O.3	1	LIG1	0.000	
7	  C3	8.411	3.503	14.564	C.3	1	LIG1	0.000	
8	  N3	8.396	-1.738	4.429	N.2	1	LIG1	0.000	
9	  O3	8.483	-1.461	8.594	O.3	1	LIG1	0.000	
10	  C4	7.310	2.458	12.581	C.3	1	LIG1	0.000	
11	  N4	5.108	-1.824	5.891	N.2	1	LIG1	0.000	
12	  O4	6.498	-1.477	2.065	O.2	1	LIG1	0.000	
13	  C5	7.463	1.964	11.137	C.2	1	LIG1	0.000	
14	  N5	2.970	-1.647	4.978	N.pl3	1	LIG1	0.000	
15	  C6	8.793	0.691	9.680	C.3	1	LIG1	0.000	
16	  N6	4.791	-1.558	3.575	N.2	1	LIG1	0.000	
17	  C7	8.364	-0.764	9.835	C.3	1	LIG1	0.000	
18	  C8	7.259	-1.324	7.859	C.3	1	LIG1	0.000	
19	  C9	8.623	-1.652	5.725	C.2	1	LIG1	0.000	
20	 C10	7.030	-1.889	4.341	C.2	1	LIG1	0.000	
21	 C11	6.436	-1.887	5.579	C.2	1	LIG1	0.000	
22	 C12	4.311	-1.683	4.865	C.2	1	LIG1	0.000	
23	 C13	6.134	-1.623	3.222	C.2	1	LIG1	0.000	
24	  H1	8.923	4.298	11.275	 H	1	LIG1	0.000	
25	  H2	9.739	4.931	12.715	 H	1	LIG1	0.000	
26	  H3	8.005	5.190	12.505	 H	1	LIG1	0.000	
27	  H4	9.436	2.538	12.979	 H	1	LIG1	0.000	
28	  H5	9.334	3.941	14.949	 H	1	LIG1	0.000	
29	  H6	8.198	2.593	15.130	 H	1	LIG1	0.000	
30	  H7	7.603	4.219	14.736	 H	1	LIG1	0.000	
31	  H8	7.136	1.571	13.197	 H	1	LIG1	0.000	
32	  H9	5.328	2.908	12.235	 H	1	LIG1	0.000	
33	 H10	6.304	4.205	12.193	 H	1	LIG1	0.000	
34	 H11	9.842	0.722	9.377	 H	1	LIG1	0.000	
35	 H12	8.251	1.195	8.872	 H	1	LIG1	0.000	
36	 H13	7.339	-0.842	10.212	 H	1	LIG1	0.000	
37	 H14	9.011	-1.255	10.566	 H	1	LIG1	0.000	
38	 H15	6.906	-0.289	7.889	 H	1	LIG1	0.000	
39	 H16	6.507	-1.999	8.279	 H	1	LIG1	0.000	
40	 H17	9.590	-1.507	6.188	 H	1	LIG1	0.000	
41	 H18	2.656	-1.542	5.944	 H	1	LIG1	0.000	
42	 H19	2.496	-0.981	4.376	 H	1	LIG1	0.000	
43	 H20	4.129	-1.415	2.832	 H	1	LIG1	0.000	
@<TRIPOS>BOND
1 1 4 1
2 1 24 1
3 1 25 1
4 1 26 1
5 2 32 1
6 2 33 1
7 4 7 1
8 4 10 1
9 4 27 1
10 5 19 ar
11 5 21 ar
12 6 15 1
13 7 28 1
14 7 29 1
15 7 30 1
16 8 20 ar
17 9 18 1
18 2 10 1
19 10 13 1
20 10 31 1
21 11 22 ar
22 3 13 2
23 6 13 1
24 14 41 1
25 14 42 1
26 15 17 1
27 15 34 1
28 15 35 1
29 16 23 ar
30 16 43 1
31 9 17 1
32 17 36 1
33 17 37 1
34 5 18 1
35 18 38 1
36 18 39 1
37 8 19 ar
38 19 40 1
39 20 21 ar
40 20 23 ar
41 11 21 ar
42 14 22 1
43 16 22 ar
44 12 23 2
@<TRIPOS>SUBSTRUCTURE
1	LIG1	1	GROUP	1 ****	LIG
