@<TRIPOS>MOLECULE
second.pdb
43 44 1 0 0
SMALL
NO_CHARGES


@<TRIPOS>ATOM
      1 C1         -0.3050    7.0740    1.2200 C.3       1 LIG    0.0000
      2 C2          1.0050    7.0840    0.4530 C.3       1 LIG    0.0000
      3 C3          1.7910    5.8310    0.7600 C.3       1 LIG    0.0000
      4 C4          0.7690    7.1890   -1.0540 C.3       1 LIG    0.0000
      5 N1         -0.2160    6.1990   -1.5250 N.4       1 LIG    0.0000
      6 C5          0.3460    8.6060   -1.4330 C.2       1 LIG    0.0000
      7 O1         -0.5850    8.8890   -2.1760 O.2       1 LIG    0.0000
      8 O2          1.3590    9.4650   -1.1320 O.3       1 LIG    0.0000
      9 C6          1.2260   10.7580   -1.7320 C.3       1 LIG    0.0000
     10 C7          2.5340   11.5040   -1.5050 C.3       1 LIG    0.0000
     11 O3          3.5660   10.9600   -2.3430 O.3       1 LIG    0.0000
     12 C8          4.8090   11.1480   -1.6550 C.3       1 LIG    0.0000
     13 N2          5.9050   10.8810   -2.5760 N.ar      1 LIG    0.0000
     14 C9          6.6040   11.8400   -3.2650 C.ar      1 LIG    0.0000
     15 N3          7.6880   11.3490   -3.8380 N.ar      1 LIG    0.0000
     16 C10         7.6770   10.0180   -3.4710 C.ar      1 LIG    0.0000
     17 C11         6.5510    9.6900   -2.7570 C.ar      1 LIG    0.0000
     18 N4          6.2600    8.5160   -2.1210 N.2       1 LIG    0.0000
     19 C12         7.2580    7.6770   -2.0330 C.2       1 LIG    0.0000
     20 N5          7.1330    6.4330   -1.5240 N.pl3     1 LIG    0.0000
     21 N6          8.5010    7.9630   -2.5720 N.am      1 LIG    0.0000
     22 C13         8.8000    9.1020   -3.3120 C.2       1 LIG    0.0000
     23 O4          9.8680    9.2430   -3.8900 O.2       1 LIG    0.0000
     24 H1         -0.9180    7.9410    0.9620 H         1 LIG    0.0000
     25 H2         -0.1110    7.1050    2.2920 H         1 LIG    0.0000
     26 H3         -0.8790    6.1670    1.0140 H         1 LIG    0.0000
     27 H4          1.5950    7.9360    0.8040 H         1 LIG    0.0000
     28 H5          1.1880    4.9350    0.5890 H         1 LIG    0.0000
     29 H6          2.1200    5.8350    1.8010 H         1 LIG    0.0000
     30 H7          2.6840    5.7800    0.1320 H         1 LIG    0.0000
     31 H8          1.7050    6.9950   -1.5870 H         1 LIG    0.0000
     32 H9         -0.9540    6.0980   -0.8240 H         1 LIG    0.0000
     33 H10        -0.6940    6.5800   -2.3420 H         1 LIG    0.0000
     34 H11         0.4030   11.2920   -1.2460 H         1 LIG    0.0000
     35 H12         1.0340   10.6620   -2.8060 H         1 LIG    0.0000
     36 H13         2.8360   11.4160   -0.4560 H         1 LIG    0.0000
     37 H14         2.4200   12.5620   -1.7550 H         1 LIG    0.0000
     38 H15         4.8820   10.4610   -0.8080 H         1 LIG    0.0000
     39 H16         4.8950   12.1860   -1.3200 H         1 LIG    0.0000
     40 H17         6.3040   12.8790   -3.2630 H         1 LIG    0.0000
     41 H18         6.3090    6.2190   -0.9660 H         1 LIG    0.0000
     42 H19         7.9650    5.9430   -1.2060 H         1 LIG    0.0000
     43 H20         9.2320    7.2780   -2.4610 H         1 LIG    0.0000
@<TRIPOS>BOND
     1    1    2 1
     2    1   24 1
     3    1   25 1
     4    1   26 1
     5    2    3 1
     6    2    4 1
     7    2   27 1
     8    3   28 1
     9    3   29 1
    10    3   30 1
    11    4    5 1
    12    4    6 1
    13    4   31 1
    14    5   32 1
    15    5   33 1
    16    6    7 2
    17    6    8 1
    18    8    9 1
    19    9   10 1
    20    9   34 1
    21    9   35 1
    22   10   11 1
    23   10   36 1
    24   10   37 1
    25   11   12 1
    26   12   13 1
    27   12   38 1
    28   12   39 1
    29   13   14 ar
    30   13   17 ar
    31   14   15 ar
    32   14   40 1
    33   15   16 ar
    34   16   17 ar
    35   16   22 1
    36   17   18 1
    37   18   19 2
    38   19   20 2
    39   19   21 1
    40   20   41 1
    41   20   42 1
    42   21   22 am
    43   21   43 1
    44   22   23 2
@<TRIPOS>SUBSTRUCTURE
     1 LIG     1 RESIDUE           4 A     LIG     0 ROOT
