# created with PyMOL 3.0.3
@<TRIPOS>MOLECULE
second
43 44 1                 
SMALL
USER_CHARGES
@<TRIPOS>ATOM
1	  C1	-11.014	0.529	-8.247	C.3	1	LIG1	0.000	
2	  N1	-10.797	3.142	-9.618	N.3	1	LIG1	0.000	
3	  O1	-9.559	1.776	-11.742	O.co2	1	LIG1	0.000	
4	  C2	-12.073	1.072	-9.186	C.3	1	LIG1	0.000	
5	  N2	-8.268	-3.746	-12.671	N.2	1	LIG1	0.000	
6	  O2	-11.075	0.094	-11.649	O.3	1	LIG1	0.000	
7	  C3	-13.111	1.807	-8.364	C.3	1	LIG1	0.000	
8	  N3	-6.907	-3.485	-10.914	N.2	1	LIG1	0.000	
9	  O3	-9.904	-2.559	-13.879	O.3	1	LIG1	0.000	
10	  C4	-11.494	2.009	-10.252	C.3	1	LIG1	0.000	
11	  N4	-6.675	-4.316	-14.422	N.2	1	LIG1	0.000	
12	  O4	-3.917	-3.787	-11.434	O.2	1	LIG1	0.000	
13	  C5	-10.562	1.292	-11.239	C.2	1	LIG1	0.000	
14	  N5	-4.881	-4.797	-15.820	N.pl3	1	LIG1	0.000	
15	  C6	-10.266	-0.499	-12.675	C.3	1	LIG1	0.000	
16	  N6	-4.454	-4.239	-13.625	N.2	1	LIG1	0.000	
17	  C7	-10.730	-1.926	-12.897	C.3	1	LIG1	0.000	
18	  C8	-9.503	-3.860	-13.435	C.3	1	LIG1	0.000	
19	  C9	-8.161	-3.505	-11.323	C.2	1	LIG1	0.000	
20	 C10	-6.192	-3.737	-12.069	C.2	1	LIG1	0.000	
21	 C11	-7.008	-3.946	-13.150	C.2	1	LIG1	0.000	
22	 C12	-5.390	-4.429	-14.630	C.2	1	LIG1	0.000	
23	 C13	-4.764	-3.903	-12.307	C.2	1	LIG1	0.000	
24	  H1	-10.281	-0.069	-8.793	 H	1	LIG1	0.000	
25	  H2	-11.477	-0.111	-7.491	 H	1	LIG1	0.000	
26	  H3	-10.489	1.334	-7.727	 H	1	LIG1	0.000	
27	  H4	-12.570	0.225	-9.668	 H	1	LIG1	0.000	
28	  H5	-12.653	2.601	-7.767	 H	1	LIG1	0.000	
29	  H6	-13.607	1.115	-7.680	 H	1	LIG1	0.000	
30	  H7	-13.869	2.254	-9.012	 H	1	LIG1	0.000	
31	  H8	-12.316	2.414	-10.848	 H	1	LIG1	0.000	
32	  H9	-11.409	3.573	-8.927	 H	1	LIG1	0.000	
33	 H10	-9.986	2.808	-9.096	 H	1	LIG1	0.000	
34	 H11	-9.206	-0.517	-12.394	 H	1	LIG1	0.000	
35	 H12	-10.362	0.072	-13.605	 H	1	LIG1	0.000	
36	 H13	-11.766	-1.938	-13.249	 H	1	LIG1	0.000	
37	 H14	-10.710	-2.474	-11.952	 H	1	LIG1	0.000	
38	 H15	-9.316	-4.496	-14.305	 H	1	LIG1	0.000	
39	 H16	-10.273	-4.320	-12.809	 H	1	LIG1	0.000	
40	 H17	-9.028	-3.349	-10.698	 H	1	LIG1	0.000	
41	 H18	-3.905	-5.124	-15.808	 H	1	LIG1	0.000	
42	 H19	-5.502	-5.316	-16.422	 H	1	LIG1	0.000	
43	 H20	-3.479	-4.379	-13.861	 H	1	LIG1	0.000	
@<TRIPOS>BOND
1 1 4 1
2 1 24 1
3 1 25 1
4 1 26 1
5 2 32 1
6 2 33 1
7 4 7 1
8 4 10 1
9 4 27 1
10 5 19 ar
11 5 21 ar
12 6 15 1
13 7 28 1
14 7 29 1
15 7 30 1
16 8 20 ar
17 9 18 1
18 2 10 1
19 10 13 1
20 10 31 1
21 11 22 ar
22 3 13 2
23 6 13 1
24 14 41 1
25 14 42 1
26 15 17 1
27 15 34 1
28 15 35 1
29 16 23 ar
30 16 43 1
31 9 17 1
32 17 36 1
33 17 37 1
34 5 18 1
35 18 38 1
36 18 39 1
37 8 19 ar
38 19 40 1
39 20 21 ar
40 20 23 ar
41 11 21 ar
42 14 22 1
43 16 22 ar
44 12 23 2
@<TRIPOS>SUBSTRUCTURE
1	LIG1	1	GROUP	1 ****	LIG
