# created with PyMOL 3.0.3
@<TRIPOS>MOLECULE
second
43 44 1                 
SMALL
USER_CHARGES
@<TRIPOS>ATOM
1	  C1	7.314	15.103	-7.246	C.3	1	LIG1	0.000	
2	  N1	9.331	13.691	-5.745	N.3	1	LIG1	0.000	
3	  O1	7.117	12.126	-5.121	O.co2	1	LIG1	0.000	
4	  C2	8.118	13.981	-7.879	C.3	1	LIG1	0.000	
5	  N2	3.068	6.895	-7.710	N.2	1	LIG1	0.000	
6	  O2	7.033	11.265	-7.234	O.3	1	LIG1	0.000	
7	  C3	9.286	14.585	-8.632	C.3	1	LIG1	0.000	
8	  N3	0.850	6.757	-7.466	N.2	1	LIG1	0.000	
9	  O3	4.722	8.437	-7.148	O.3	1	LIG1	0.000	
10	  C4	8.637	12.990	-6.839	C.3	1	LIG1	0.000	
11	  N4	3.747	4.631	-7.093	N.2	1	LIG1	0.000	
12	  O4	-0.285	3.986	-6.948	O.2	1	LIG1	0.000	
13	  C5	7.506	12.125	-6.284	C.2	1	LIG1	0.000	
14	  N5	3.978	2.313	-6.886	N.pl3	1	LIG1	0.000	
15	  C6	6.063	10.369	-6.685	C.3	1	LIG1	0.000	
16	  N6	1.867	3.219	-6.992	N.2	1	LIG1	0.000	
17	  C7	5.545	9.431	-7.762	C.3	1	LIG1	0.000	
18	  C8	4.345	7.460	-8.124	C.3	1	LIG1	0.000	
19	  C9	1.855	7.528	-7.834	C.2	1	LIG1	0.000	
20	 C10	1.464	5.572	-7.111	C.2	1	LIG1	0.000	
21	 C11	2.831	5.639	-7.224	C.2	1	LIG1	0.000	
22	 C12	3.234	3.432	-7.003	C.2	1	LIG1	0.000	
23	 C13	0.910	4.227	-7.034	C.2	1	LIG1	0.000	
24	  H1	6.521	14.706	-6.608	 H	1	LIG1	0.000	
25	  H2	6.855	15.721	-8.022	 H	1	LIG1	0.000	
26	  H3	7.952	15.751	-6.639	 H	1	LIG1	0.000	
27	  H4	7.475	13.462	-8.596	 H	1	LIG1	0.000	
28	  H5	9.934	15.154	-7.960	 H	1	LIG1	0.000	
29	  H6	8.927	15.261	-9.413	 H	1	LIG1	0.000	
30	  H7	9.885	13.800	-9.101	 H	1	LIG1	0.000	
31	  H8	9.354	12.316	-7.311	 H	1	LIG1	0.000	
32	  H9	8.638	14.153	-5.156	 H	1	LIG1	0.000	
33	 H10	9.789	13.001	-5.144	 H	1	LIG1	0.000	
34	 H11	5.219	10.931	-6.270	 H	1	LIG1	0.000	
35	 H12	6.513	9.778	-5.878	 H	1	LIG1	0.000	
36	 H13	6.368	8.952	-8.297	 H	1	LIG1	0.000	
37	 H14	4.955	9.987	-8.496	 H	1	LIG1	0.000	
38	 H15	5.098	6.670	-8.181	 H	1	LIG1	0.000	
39	 H16	4.202	7.924	-9.105	 H	1	LIG1	0.000	
40	 H17	1.775	8.540	-8.206	 H	1	LIG1	0.000	
41	 H18	3.607	1.446	-7.265	 H	1	LIG1	0.000	
42	 H19	4.974	2.435	-7.085	 H	1	LIG1	0.000	
43	 H20	1.533	2.272	-6.922	 H	1	LIG1	0.000	
@<TRIPOS>BOND
1 1 4 1
2 1 24 1
3 1 25 1
4 1 26 1
5 2 32 1
6 2 33 1
7 4 7 1
8 4 10 1
9 4 27 1
10 5 19 ar
11 5 21 ar
12 6 15 1
13 7 28 1
14 7 29 1
15 7 30 1
16 8 20 ar
17 9 18 1
18 2 10 1
19 10 13 1
20 10 31 1
21 11 22 ar
22 3 13 2
23 6 13 1
24 14 41 1
25 14 42 1
26 15 17 1
27 15 34 1
28 15 35 1
29 16 23 ar
30 16 43 1
31 9 17 1
32 17 36 1
33 17 37 1
34 5 18 1
35 18 38 1
36 18 39 1
37 8 19 ar
38 19 40 1
39 20 21 ar
40 20 23 ar
41 11 21 ar
42 14 22 1
43 16 22 ar
44 12 23 2
@<TRIPOS>SUBSTRUCTURE
1	LIG1	1	GROUP	1 ****	LIG
